77

Si      4.12237806      0.86402872     10.55231934
Si      6.49981185      4.16217553      4.00732383
Si      8.15726815     10.05184899      9.34594867
Si      4.44123371      9.94503587      5.04321493
Si     10.79032127      6.85478810      9.67244577
Si      8.23842698      5.82791212      3.49497862
Si      8.70162625      5.18169275      1.08375204
Si      2.24064914      9.25404203      6.01448549
Si      3.54518449     11.09372078      3.00901053
Si      8.62243018      1.26654784      0.06108989
Si      8.47185720      7.49266354      9.35132711
Si      7.32947445      1.24566252      6.17722196
Si      7.68200798      2.04870330      3.94712077
Si      3.51261945      3.50681518      7.53168226
Si      7.57875157      8.17036823      3.88902372
Si      1.37068606     11.23659607      7.22987512
Si     11.15281415      4.69357874      8.59160395
Si      2.11832042      8.26216032      0.26913659
Si      7.60849860      0.44843004      2.12125607
Si      5.37282217      7.79132096      4.72567994
Si     10.34245965      6.86882204      0.62342795
Si      5.26915133      0.31157143      1.31502640
Si      5.52482582      4.18598723      6.29884915
Si      5.05780775     11.67296456      6.72656502
Si      1.60425090      4.28857689      0.79077403
Si      5.04801539      6.40003372     10.72435309
Si      4.20911206      6.62234361      2.95570067
Si      8.68348155     10.82134722      6.98322154
Si      1.77698841     10.41629323      1.53685825
Si      8.92317793      8.73214194      5.78917096
Si     11.37159165     10.07714270      2.92296768
Si      0.90669021     10.85176379      9.53263104
Si      4.36909162      7.87638467      0.87023341
Si      2.85067750      1.42190209      6.36604505
Si      4.69259832      7.76413873      8.60732624
Si      7.40597041      5.67619686     10.48139363
Si      3.79438120      4.34429609     -0.08032218
Si      9.95607582      2.76176170      3.45868906
Si      1.20594633      8.45937696      9.55621509
Si      9.82844931      3.00104931      1.11757204
Si      0.56575862      8.46384682      4.61828528
Si      2.49251710      7.64035930      7.72448280
Si      1.39520572      4.99044109      4.80119804
Si     11.33349948      0.75205418      4.23712895
Si     10.74253522      0.80845499      6.72557199
Si      7.78364509      9.52951080      1.88912091
Si      5.75822195      6.53736316      6.73733362
Si      2.30484645      3.53302212      3.04294689
Si      0.28492241      2.68877422     11.06566892
Si      1.05371898      6.48170962      1.42644880
Si      7.54044458      3.32003445      7.40030712
Si      1.93336354      6.88954778      3.51645696
Si      7.03261755      3.30439970      9.73606934
Si      7.95756952      6.89329320      7.15729545
Si      1.68437301      5.38652345      7.29915183
Si      4.62303371      4.26535758      2.36646235
Si      5.87897821      9.74398927     11.83908047
Si      9.34116236      4.84211595      6.84425350
Si      1.71481448      0.63352127     -0.16203010
Si     10.14664582     10.76601719     10.54916823
Si      2.22096859      1.33441066      4.01752902
Si      9.90500185      9.18710335      1.01114075
Si      4.62545703      3.06373182      9.62604241
Si     10.32993255      4.70544745      4.59097636
Li     11.01951755      9.43418391      6.96047553
Li      5.97314549      2.53810659      0.60529467
Li      2.23453710      5.92348041     10.00830209
Li      6.26416613      9.32077213      7.47553899
Li      5.02989221      1.64494602      4.64894530
Li      6.75156338      7.04207332      1.31111169
Li     10.11106539      1.93729971      8.85383019
Li      3.45284609      5.85915745      5.72080409
Li     10.77102611      0.49561915      1.59174329
Li     -0.17040658      3.33140197      6.19509122
Li      4.45025632     10.15425959      9.27210624
Li      6.50350633      0.47743759      9.90024048
Li     10.66938259      6.81717377      6.03199298
