224

Si      2.43093442      1.75961024      1.17349379
Si      9.41191541      4.88967803      7.64060107
Si     11.45869021     13.20502978     12.04188102
Si      5.92538909     12.78646621      6.30444137
Si     13.68246729      7.35207700     11.69805606
Si     12.90955708      9.44863641      3.52803810
Si     11.06380239      6.88537505      3.41974867
Si      1.28160913     13.31628545      8.67424140
Si      3.72260538     13.52272802      5.15955774
Si      8.50781573     -0.47863123      0.78225156
Si      6.82603405     11.46244326     12.97726390
Si      8.69343513     15.78580556      7.77094752
Si     10.86587472      2.25231786      3.91589002
Si      5.33750007      3.78676843      7.83485586
Si     13.38575730     10.26558594      5.99550373
Si      3.08595229      1.71990568     10.33900031
Si      9.04241676      7.27147287     11.85700971
Si      3.06195908     10.18444941      1.22389865
Si     10.54533867     13.17192633      4.33343184
Si      9.69775554     11.66346888      8.64727688
Si     14.35075791     10.86329064     -0.30747130
Si      6.68106765      1.23664221      4.08720088
Si     11.32403881      0.42471713      8.18116956
Si      5.51834344     12.61592751      8.93018609
Si      1.39110775      6.02287857     -0.41384223
Si      5.88390675      7.77539889     15.67377214
Si      5.59025006      8.73157309      4.23024163
Si     13.14704668     14.23120622      7.78420004
Si      0.14369526     13.97610320      2.22236639
Si     13.42372942      7.94436817      7.39257466
Si     14.92416911     13.10984540      4.34990666
Si      2.93055852     13.86195347     12.80718513
Si      5.53479460      9.72732302      1.92009189
Si      4.52959343      1.50602528      8.20241923
Si      5.27404976     14.03869946      1.05106269
Si      8.17828472      4.16197355      0.66674909
Si      7.24709711      6.25666511      1.52000109
Si     12.54360150      5.19544208      0.32730349
Si     15.98632717     13.64443937     13.46459121
Si     15.26302267      2.69753066     12.61950623
Si      2.43669113      9.74506987      6.92205389
Si     15.45825543     11.50865967      9.81054060
Si      2.45039971      6.09021498      5.25630711
Si     -2.02429948      2.09167993      4.10035052
Si     15.12871045     -0.08197065      8.93470542
Si      8.97952112     11.40144953      3.55156985
Si      9.24802995      9.48771212      7.37325247
Si      3.84807002      5.24117158      3.41207459
Si      3.02939817      9.35715787     12.50943777
Si      1.60077584      9.40154212      2.99668038
Si     10.94332000      3.02730391     11.84892484
Si      3.01823250      8.47254953      4.81407871
Si      5.74228297      5.21447917     12.15729653
Si     11.16410868     10.93531214     10.45505425
Si      1.98124863      5.77202435      9.77021154
Si      6.35283754      6.07543813      3.75361699
Si      7.19126338      0.66466744     12.27887654
Si     13.60274293      3.89816582      8.18313774
Si      4.40865411      2.91127173     15.12687155
Si     12.35656810      0.05140588      0.28792424
Si      1.79642032      1.54158676      5.41599805
Si     10.26895606      9.99599581     15.39216433
Si      6.03563285      8.40608277      8.90812430
Si      0.27268598      5.64023996      3.91014255
Li      0.29825093      7.97329108      5.92775110
Li     10.77880618      7.20612516      0.84499349
Li      7.00107127      7.00653092     13.18821704
Li     10.64772236      9.54789091      2.58129849
Li     11.06016004      7.84879510      5.95118489
Li     10.86506158     10.27895900      5.16185256
Li     15.06986096      0.09208877     11.71690884
Li      5.26785577      7.21963334      6.43701708
Li      4.52843152      0.79812960      5.53859350
Li      5.37610067     13.47368432     13.96094157
Li      1.47243354     11.20739262     11.98466650
Li      7.82087595     -1.42245567     13.76829014
Li     14.90205599      7.87409292      3.32834614
Li     14.24858096     11.89623798     12.47216347
Li      7.52880785      4.57252792      6.07119656
Li     15.24806219      8.05674741     -0.06838848
Li     -1.91059588     15.25206324      2.54802190
Li     12.34621601      7.06034868     13.90657434
Li      8.63211571      4.42866573     12.19566245
Li     14.79510476      4.19349624     -0.16967521
Li      4.76926783      0.36886479     12.18152825
Li     17.00166094     10.00400901     -0.95063334
Li     12.83566502     14.85360162      5.00070829
Li     19.11801913     11.96754648     14.96817947
Li      8.29804282      9.33004315      4.76106021
Li      9.34619984      2.64894491      5.92028494
Li     14.87776701     12.17591738      6.83810290
Li     15.48355700      9.09796953     12.81467979
Li     11.84599691      0.35933093     11.04981331
Li      6.93392969      0.80129958      9.77591269
Li     11.79563210     12.17293515      6.51281215
Li     14.35670337      1.55401078     14.55225037
Li     11.76712427      5.17215371      6.78920804
Li      1.85050269      7.55886541      7.91922568
Li      6.26782695     14.96284130      7.49419369
Li     11.06902834      3.21611338      8.92440723
Li      3.21597917      7.92252349     15.00275468
Li      1.89760666     12.12113534      3.74980675
Li     13.96629779     13.37783847      0.58981703
Li      6.62451447     11.57181091     15.60794489
Li     15.97226294     10.47660792      5.33235694
Li      6.89129072      3.13823627     13.88293964
Li     11.29558574     13.52277891      9.36828139
Li     11.98311195      2.28435496      6.63603899
Li      5.26996925      3.45210431      5.03593352
Li     12.59143996      6.20896091      9.68194228
Li      7.14627651     13.15962827      2.49339380
Li     14.99435704      2.41572522      1.73213523
Li      0.50133605      3.30942549      4.00068273
Li      1.83682889      1.02209884      7.89311517
Li      4.09266112      2.84111538     12.55177646
Li      6.85982386      8.96909199     11.56610462
Li      3.56199524      5.26161044     13.44879533
Li      2.96334059     12.55233788     10.30199139
Li     10.53194545      7.22542139      8.28978814
Li     14.81790378     16.08557449      6.54289554
Li      1.08203963     12.15118155     15.84807458
Li      3.61498297      5.44386085      0.86695745
Li     -0.17484576      6.10212206      8.27073213
Li      3.50238422     14.28511864      7.42821409
Li      2.38470728      3.58652488      8.65426273
Li     12.95380481      4.04780623     13.31998851
Li      0.47922736      2.25539340      9.79022489
Li     -2.22255099      2.76721200     10.84384085
Li      4.62439049     14.76267089      9.81648307
Li      3.87734052      7.56673064      2.20052966
Li     13.31003499     11.50952427      8.86897863
Li      7.92916894      6.76313207      7.51709561
Li     11.71657688      9.60454403      7.79954459
Li      1.08226900     15.55191944     -0.13465668
Li      8.73655987      7.75688644      2.62251519
Li     11.14199095      8.16969852     10.60576639
Li      5.62575425      4.06201704      1.53859622
Li     -2.59410680      9.64497992     12.46086918
Li      9.04428876     14.18294036     11.43908433
Li      9.11352789      0.11649159      3.30649107
Li     13.58073454      6.74856987      5.03733408
Li      9.38875774      1.24760616     10.63566738
Li      7.97267904     13.72939695      9.21482971
Li      6.10543563      5.76872056      9.58539553
Li      8.11055874      9.18875850     14.45444802
Li      1.98309005     -0.35177123     10.57827470
Li     11.77411866      1.41557681     13.62942791
Li      3.90809017      7.20893646      9.40467533
Li     12.76697221      9.09200274      0.42058747
Li     14.87144255     11.01825732      2.31199363
Li      2.30651677     12.05125823      6.52153410
Li      4.01508207      4.67922968     10.42966964
Li     12.57368261     18.21174970      0.59885626
Li      8.82565427      1.46184946     14.27134384
Li     13.61137140     13.64718368     10.59470686
Li      4.71515662     10.25118747     10.29141365
Li      9.05826016     12.37785017      0.78986497
Li      7.73203383      1.82099945      1.70357392
Li      3.06874129      2.64886372      3.54906028
Li      4.46573216     11.53544212     12.51931819
Li     16.60685903     14.24278671      5.81024519
Li     10.17765790      9.71533855     12.88071726
Li      1.48656424      4.31886611      1.92853478
Li     10.38854289      0.21424784      5.53748274
Li      9.76830647     13.48877760      6.96974396
Li     13.40872824      1.47037309      8.53319370
Li     13.83721826      4.01134674      5.62846060
Li      6.41821856     13.70153881     11.37498332
Li     13.53598632     14.33699279     13.50173174
Li      9.50359291      6.37158482     14.23673168
Li      4.53170145     10.51179367      7.82233910
Li      2.53605276     15.45593147      3.29987598
Li      1.81633321      3.31061613     14.23885975
Li     10.40249876      4.82786151      4.53916764
Li      4.38796892     12.24370014      2.75705782
Li      6.87657102      2.01409172      6.57361790
Li     15.88126614      3.24738085      6.98611902
Li      8.72119010      5.69465347      9.94266872
Li      4.21533248     11.01942741      5.12037525
Li      0.08485732      9.71931775      8.06280296
Li      0.08086142      0.38138683      4.02908025
Li      8.54014359     11.13911022     11.29084793
Li     12.89775909      4.57639746      3.14829622
Li      4.76750491      7.52222753     11.80912301
Li      1.72400181      4.11200000     11.61139882
Li      7.21129309     10.57867286      9.25423492
Li      5.11628131      1.37321180      2.06774549
Li      2.14434277      9.56813694      9.65426938
Li      5.35007439      9.15568025     13.62277270
Li      8.18396516      9.98519501      1.72543701
Li     15.80388342      7.70341291     10.33738522
Li      6.42785356      2.86514533     11.21332002
Li      8.48692360      8.22025611      9.56080256
Li      9.32797599     12.05884896     13.67293408
Li     15.19484418      5.32839355     12.97967600
Li      7.96477368     -0.73842009      5.33327862
Li      8.67421135      6.73630436      5.07360976
Li     10.36280922      3.66905994     14.48911940
Li     -1.03863143      5.98656952      1.64454681
Li     13.56662125      9.08674487      9.89505147
Li      6.66161972     11.23702456      4.13330574
Li      8.31754902     11.68482887      6.27354738
Li      2.90629730      3.29673572      6.24396008
Li      6.43070125      9.96429113      6.49668685
Li     10.48585084      4.38664567      1.77575997
Li      7.92957858      2.97537308      9.10916664
Li     14.80865102      4.80760411     10.59439836
Li      2.77040195     14.00256660     16.68084309
Li      7.42684435      3.64775994      3.56230745
Li     12.20866079     11.58751324      1.22438568
Li     12.72491965     11.98798230      3.88160515
Li      3.56986246      5.60228803      7.58839257
Li     10.54184871     14.03150155     14.55820860
Li      2.21236250      7.02007161     12.38921419
Li      1.38093708      7.12101826      1.73569462
Li      1.94718923      1.01264662     12.91395430
Li     11.25110443      5.83660128     11.90331495
Li      6.47958551      0.80271225     15.05685983
Li      5.21023708     14.56276113      3.49321159
Li      3.67911118     15.67111178     14.71538153
Li     11.80536736     11.71876264     14.04556352
Li      5.84117233      5.41756234     14.75365480
Li     -4.46499570     14.25752864     17.40044195
Li     10.26662102      1.57852797      1.40566970
