160

Si      2.55978130      1.17876121      0.58166414
Si      9.44037384      5.25824112      5.85760159
Si     10.14519686     10.92397828     11.12235965
Si      5.24690190     11.75757170      6.72420661
Si     12.45804980      6.57102683     10.46362831
Si     10.40769242      6.69452452      4.11153871
Si      8.99490919      8.10075093      2.79374707
Si      3.12713987     11.12118413      7.72152946
Si      3.39720770     13.72071713      3.89530800
Si      8.44930521      2.10282765     14.02693636
Si      7.30564480      6.59857976     10.69017897
Si      8.61605212     13.07934763      7.17390914
Si     10.44883552      1.46146330      4.11398429
Si      6.33959180      2.40434261      6.21043304
Si     11.57366411     10.90939854      4.76434160
Si      2.02174798      3.26747215     10.12997755
Si     11.31004993      4.61568688     11.51878486
Si      2.26643877     10.12759288      0.78228272
Si      8.46244416      0.88171108      2.42938662
Si      6.58033975      9.70467666      5.73058798
Si     13.92082008      7.15968217     12.42190104
Si      4.53743045      1.07028700      2.12787308
Si      8.39826750      1.74855067      7.39436156
Si      6.80379317     12.16868723      8.60216236
Si      1.76272614      5.19592573      1.99594921
Si      5.82462269      8.61100153     -0.16166915
Si      4.87334879      8.95847818      3.76927812
Si     11.19919350     11.48155162      8.66839775
Si     -0.99433296     12.55485398      1.19052507
Si     11.44836196      9.61267199      7.06120736
Si      0.29143066     11.66738711      4.81221063
Si      1.19685161     13.25547821     11.03473021
Si      4.57060288     10.10214714      1.53495859
Si      3.20320031      2.16093444      8.26453030
Si      5.59179600     12.38526965     12.47638641
Si      8.29341395      4.54536710      0.81045279
Si      5.49106806      6.38193542      0.93118361
Si     12.10863909      2.94510747      3.02429136
Si      0.35639613     10.95205550     10.53028572
Si     12.80611109      3.05753608     12.76157190
Si      1.36558931      9.86103915      6.31790921
Si      3.32751184      9.77563772      9.88554776
Si      2.56244730      6.31143367      5.81519014
Si      0.44633996     -0.26050309      6.31191301
Si     12.25782562      1.88261144      8.23708197
Si      8.12599904     12.23430797      2.27552182
Si      6.35976948      7.81266856      7.24404515
Si      3.48724915      4.97675536      3.75148520
Si      2.37285909      6.66621555     11.82149047
Si      0.89367271      8.30115803      2.59311409
Si      8.48064329      2.69700830      9.59821366
Si      2.44707193      8.42567041      4.60292395
Si      6.51062314      4.07619322     10.10473823
Si      8.15184913      8.08012019      8.83313696
Si      2.65122250      7.13245920      9.35693807
Si      5.42709550      6.30173292      3.41246964
Si      6.08364664     13.78433866     10.46591155
Si     10.72551272      3.69867572      9.18483516
Si      3.81628078      3.00145405     12.93579827
Si     10.16988201     13.09761709     12.16985156
Si      1.72624874      1.35239552      4.80500114
Si      9.96765265      8.32562645      0.45143316
Si      5.10185818      3.82079293      7.82622951
Si     14.05074407      5.38680217      6.46303357
Li      0.70550064      7.85299405      7.66503596
Li      9.35888416      4.09679769      3.25725731
Li      8.49487228      4.75784021     12.00549278
Li     10.63075779     11.57861058      2.71070550
Li      7.61891454      7.04253827      5.07197383
Li      8.83862198     10.19636022      4.05207275
Li     12.63617074      0.51702295     11.71445759
Li      5.04586648      6.09977960      6.25952283
Li      4.32272285      2.68291412      4.22804617
Li      5.49418867     10.06906479     11.40542872
Li      7.85288864     10.33747236      9.98071946
Li      6.37930717     -0.14213075     14.31071160
Li     11.81292488      9.02045772      3.15547874
Li      1.25464968     12.46595070      8.42174093
Li      7.25013726      4.27940148      4.60879311
Li     12.40949708      7.56514852      0.94836010
Li      1.21249283     12.62774507      0.08755066
Li     13.14966085      5.19256435     13.94110256
Li     10.59527812      1.91289341     12.79466271
Li     12.52388346      1.20488630      0.91134107
Li      4.50488524      2.36666439     10.49852120
Li      0.09812451      6.04222119      4.04540762
Li     12.10583856     13.48728823      3.25385544
Li     12.11399595      9.33361129     11.46273012
Li      5.59010561     12.18946934      2.87855197
Li      5.91759584      3.32029264      1.23323996
Li     13.78288068     10.29330615      8.24017628
Li     14.49091807      8.60901921     10.03412105
Li     10.58046673      0.92109985     10.23242435
Li      5.46434483      0.78329575      8.19136534
Li     10.38585898     12.93025934      5.30287712
Li      8.36569519      0.96368963     11.25061456
Li     11.40850966      5.74182710      7.73255049
Li      3.44047528      8.42488798      7.30350541
Li      7.59207418     12.71494809      4.95361678
Li     10.43589482      2.69342833      6.31842163
Li      3.31611888      5.47618745      0.26142488
Li      3.31405916     11.33622303      4.99882871
Li     12.67575433     11.87087317     12.26076573
Li      3.32033825      9.02755454     12.64860879
Li     13.78504809     10.67144120      2.64617119
Li      6.30954748      1.87468666     -1.07269268
Li     10.64348061      0.08200677      7.86173551
Li      6.67387563      1.67244164      3.83497162
Li      3.79551152     12.67970055      0.52696546
Li      9.06568605      5.57522870      8.88975899
Li      7.96400552      6.95501912     13.56313026
Li      0.03821205      3.20317907      4.86899203
Li      0.45474903      3.33358957      7.67775842
Li      3.48398068     13.72028992      9.51113222
Li      0.42401413      4.69348279     11.76928509
Li      5.61730832      9.57499733      8.70127641
Li      6.14461035      4.74742207     12.83118269
Li      2.97409156     13.41356519      6.72894818
Li      9.83464279      7.74362871      6.48892544
Li     12.02510150     14.70821911      5.94280182
Li      0.65857857      9.90970365     12.79785583
Li      1.40962276      3.74864486      0.01345212
Li     14.20028567      5.06445365      9.25555206
Li      2.31421935     -2.12094166      2.81125450
Li      2.73305909      5.17037795      8.20175593
Li     10.89423782      3.40808905      0.95800702
Li      1.02974579      1.08557751      8.68012931
Li     13.29266504      3.00024885     10.30348278
Li      5.26748556      0.39620374      5.70312587
Li      3.39093404      6.94217984      2.29828764
Li     10.61708702      7.69621713      9.04481648
Li      7.54528148      4.63293787      7.21591758
Li     12.66186934      7.39213295      5.84531228
Li      3.07517887     11.64118313     12.09702190
Li      6.87449621      8.39361110      1.91667729
Li      7.65910800      6.14283485     16.39463536
Li      3.28276401      3.38487085      1.98062161
Li      1.78048546      7.51953453     14.19392235
Li      8.84153792     -0.97960921      9.71628125
Li      6.86552347     -2.94517674      0.85758053
Li     11.84245155      4.66424939      5.30405215
Li      7.90326458     -1.74487187     11.91019811
Li      8.81641586     10.57003688      7.51038677
Li      2.52531452      3.46050579      6.05939647
Li      8.16046148      9.44446112     -1.25062344
Li      1.34469400      1.70415081     12.02801406
Li     10.45930362     13.32848366     14.67901024
Li      5.14791991      5.95377336      8.87702546
Li     10.52514611      5.73102640      0.05963711
Li     12.15649215      9.99776145     14.23725601
Li     12.37511156     12.27147486      6.65219684
Li      3.72520196      4.89260658     11.05012946
Li     14.64816257     -0.19532991      2.44763517
Li     11.82548393      5.45807477      2.33045918
Li     12.78275263     13.25323284      9.51760654
Li      4.91840444      7.56136907     10.96225512
Li      9.85413763      6.89989944     11.85376245
Li      9.43814669     11.01024162     14.26333590
Li      0.94479661      2.57465236      2.25849774
Li      3.69798397      0.34689499     12.05611048
